Version 4
SHEET 1 1936 680
WIRE -32 -112 -32 -128
WIRE 160 -112 -32 -112
WIRE 320 -112 320 -176
WIRE 320 -112 256 -112
WIRE 576 -112 320 -112
WIRE 608 -112 576 -112
WIRE 784 -112 736 -112
WIRE 832 -112 832 -176
WIRE 832 -112 784 -112
WIRE 960 -112 832 -112
WIRE -528 -96 -528 -128
WIRE -400 -96 -400 -128
WIRE 320 -80 320 -112
WIRE 576 -80 576 -112
WIRE 784 -80 784 -112
WIRE 832 -80 832 -112
WIRE 960 -80 960 -112
WIRE 176 -32 176 -64
WIRE -528 16 -528 -16
WIRE -400 16 -400 -16
WIRE 320 16 320 -16
WIRE 576 16 576 -16
WIRE 784 16 784 -16
WIRE 832 16 832 -16
WIRE 1392 16 1312 16
WIRE 672 32 672 -64
WIRE 960 32 960 0
WIRE 1392 48 1312 48
WIRE 1632 48 1456 48
WIRE -32 80 -32 -112
WIRE 0 80 -32 80
WIRE 176 80 176 48
WIRE 176 80 80 80
WIRE 336 80 272 80
WIRE 1632 80 1600 80
WIRE 1776 80 1696 80
WIRE 1888 80 1776 80
WIRE 1312 112 1312 48
WIRE 1392 112 1376 112
WIRE 1312 144 1312 112
WIRE 1376 144 1312 144
WIRE 1776 144 1776 80
WIRE 1776 144 1568 144
WIRE -160 176 -160 144
WIRE -160 176 -544 176
WIRE -80 176 -160 176
WIRE 112 176 16 176
WIRE 224 176 224 144
WIRE 224 176 192 176
WIRE 1600 176 1600 80
WIRE 1776 176 1600 176
WIRE -224 224 -224 144
WIRE -224 224 -416 224
WIRE -80 224 -224 224
WIRE 64 224 32 224
WIRE 1568 224 1568 144
WIRE 1632 224 1568 224
WIRE 1312 240 1312 144
WIRE 1376 240 1312 240
WIRE 1376 256 1312 256
WIRE 1632 256 1440 256
WIRE 1776 256 1776 176
WIRE 1776 256 1696 256
WIRE 1824 256 1776 256
WIRE 1904 256 1824 256
WIRE -224 272 -224 224
WIRE -160 272 -160 176
WIRE -544 288 -544 256
WIRE 1776 288 1776 256
WIRE -416 336 -416 304
WIRE 1824 336 1824 320
WIRE -224 400 -224 352
WIRE -160 400 -160 352
FLAG -224 400 0
FLAG -160 400 0
FLAG 336 80 0
FLAG -528 16 0
FLAG -528 -128 +5
FLAG -400 16 0
FLAG -400 -128 +12
FLAG -32 -128 +12
FLAG 672 32 0
FLAG -544 288 0
FLAG -416 336 0
FLAG 320 16 0
FLAG 960 32 0
FLAG 784 16 0
FLAG 832 16 0
FLAG 576 16 0
FLAG 320 -176 Vc1
FLAG 832 -176 Vc4
FLAG 1776 288 nQ
FLAG 1888 80 Q
FLAG 1824 336 0
FLAG -224 144 R
FLAG 1312 256 R
FLAG -160 144 S
FLAG 1312 16 S
FLAG 1376 144 Clk
FLAG 1392 112 0
SYMBOL Digital\\srflop -32 128 R0
SYMATTR InstName A1
SYMBOL res -240 256 R0
SYMATTR InstName R1
SYMATTR Value 10k
SYMBOL res -176 256 R0
SYMATTR InstName R2
SYMATTR Value 10k
SYMBOL pmos 256 -64 M270
SYMATTR InstName M1
SYMATTR Value FDS6675
SYMBOL res 160 -48 R0
SYMATTR InstName R3
SYMATTR Value 1k
SYMBOL npn 176 144 R270
SYMATTR InstName Q1
SYMATTR Value 2N2222
SYMBOL res 208 160 R90
WINDOW 0 0 56 VBottom 2
WINDOW 3 32 56 VTop 2
SYMATTR InstName R4
SYMATTR Value 1k
SYMBOL voltage -528 -112 R0
WINDOW 123 0 0 Left 0
WINDOW 39 0 0 Left 0
SYMATTR InstName V1
SYMATTR Value 5
SYMBOL res 96 64 R90
WINDOW 0 0 56 VBottom 2
WINDOW 3 32 56 VTop 2
SYMATTR InstName R5
SYMATTR Value 2k
SYMBOL voltage -400 -112 R0
WINDOW 123 0 0 Left 0
WINDOW 39 0 0 Left 0
SYMATTR InstName V2
SYMATTR Value 12
SYMBOL voltage -544 160 R0
WINDOW 123 0 0 Left 0
WINDOW 39 0 0 Left 0
SYMATTR InstName V3
SYMATTR Value PULSE(0 5 100m 0.01u 0.01u 100m 2)
SYMBOL voltage -416 208 R0
WINDOW 123 0 0 Left 0
WINDOW 39 0 0 Left 0
SYMATTR InstName V4
SYMATTR Value PULSE(0 5 1 0.01u 0.01u 100m 2)
SYMBOL cap 304 -80 R0
SYMATTR InstName C1
SYMATTR Value 1m
SYMBOL reg3all 736 -96 R0
SYMATTR InstName U1
SYMATTR SpiceModel LM7805
SYMBOL res 944 -96 R0
SYMATTR InstName Rl
SYMATTR Value 500
SYMBOL cap 768 -80 R0
SYMATTR InstName C3
SYMATTR Value 0.1µ
SYMBOL cap 816 -80 R0
SYMATTR InstName C4
SYMATTR Value 10m
SYMBOL cap 560 -80 R0
SYMATTR InstName C5
SYMATTR Value 0.1µ
SYMBOL Digital\\and 1664 0 R0
SYMATTR InstName A2
SYMBOL Digital\\and 1664 176 R0
SYMATTR InstName A3
SYMBOL cap 1808 256 R0
SYMATTR InstName C2
SYMATTR Value 0.1µ
SYMBOL Digital\\and 1424 -32 R0
SYMATTR InstName A4
SYMBOL Digital\\and 1408 176 R0
SYMATTR InstName A5
SYMBOL cap 1312 128 R270
WINDOW 0 32 32 VTop 2
WINDOW 3 0 32 VBottom 2
SYMATTR InstName C6
SYMATTR Value 0.1µ
TEXT -536 448 Left 2 !.tran 4
TEXT 512 152 Left 2 !.lib regulators.lib
TEXT 1184 -248 Left 2 !.ic V(Vc1)=0 V(Vc4)=0 V(nQ)=1 V(Q)=0 V(Clk)=5
